Version 4
SHEET 1 1056 992
WIRE 448 160 80 160
WIRE 80 208 80 160
WIRE 448 288 448 160
WIRE 368 352 -96 352
WIRE 608 368 528 368
WIRE 784 368 608 368
WIRE 368 384 64 384
WIRE 64 432 64 384
WIRE 784 448 784 432
WIRE -96 512 -96 352
FLAG 608 448 0
FLAG 784 448 0
FLAG -96 592 0
FLAG 64 512 0
FLAG 80 288 0
SYMBOL NAND 448 368 R0
SYMATTR InstName X1
SYMBOL voltage 80 192 R0
WINDOW 123 0 0 Left 0
WINDOW 39 0 0 Left 0
SYMATTR InstName V1
SYMATTR Value 1
SYMBOL voltage -96 496 R0
WINDOW 123 0 0 Left 0
WINDOW 39 0 0 Left 0
SYMATTR InstName V2
SYMATTR Value PULSE(0 1 1n 10p 10p 2n 4n)
SYMBOL voltage 64 416 R0
WINDOW 123 0 0 Left 0
WINDOW 39 0 0 Left 0
SYMATTR InstName V3
SYMATTR Value PULSE(0 1 1n 10p 10p 4n 8n)
SYMBOL res 592 352 R0
SYMATTR InstName R1
SYMATTR Value 100k
SYMBOL cap 768 368 R0
SYMATTR InstName C1
SYMATTR Value 100f
TEXT 424 40 Left 2 !.include 90nm_bulk.txt
TEXT 424 72 Left 2 !.tran 0 10n 0 1p
