Version 4
SHEET 1 1056 992
WIRE 624 128 608 128
WIRE 640 128 624 128
WIRE 624 176 624 128
WIRE 624 176 608 176
WIRE 560 208 544 208
WIRE 624 224 608 224
WIRE 624 288 624 224
WIRE 624 288 608 288
WIRE 736 288 736 176
WIRE 736 288 624 288
WIRE 752 288 736 288
WIRE 624 336 608 336
WIRE 544 368 544 208
WIRE 560 368 544 368
WIRE 624 384 624 336
WIRE 624 384 608 384
WIRE 688 384 624 384
WIRE 624 416 624 384
WIRE 544 496 544 368
FLAG 400 256 VDD
FLAG 400 336 0
FLAG 832 288 0
FLAG 640 128 VDD
FLAG 688 384 0
FLAG 544 576 0
FLAG 688 448 VDD
FLAG 800 176 0
SYMBOL voltage 544 480 R0
WINDOW 123 0 0 Left 0
WINDOW 39 0 0 Left 0
SYMATTR InstName V1
SYMATTR Value PULSE(0 1 1n 10p 10p 2n 4n)
SYMBOL voltage 400 240 R0
WINDOW 123 0 0 Left 0
WINDOW 39 0 0 Left 0
SYMATTR InstName VDD1
SYMATTR Value 1
SYMBOL res 736 304 R270
WINDOW 0 32 56 VTop 2
WINDOW 3 0 56 VBottom 2
SYMATTR InstName R1
SYMATTR Value 100k
SYMBOL pmos4 560 128 R0
WINDOW 123 56 100 Left 2
SYMATTR InstName M1
SYMATTR Value2 l=90n w=400n
SYMBOL nmos4 560 288 R0
WINDOW 123 56 100 Left 2
SYMATTR InstName M2
SYMATTR Value2 l=90n w=200n
SYMBOL cap 800 160 R90
WINDOW 0 0 32 VBottom 2
WINDOW 3 32 32 VTop 2
SYMATTR InstName C1
SYMATTR Value 100f
TEXT 424 40 Left 2 !.include 90nm_bulk.txt
TEXT 424 72 Left 2 !.tran 0 10n 0 1p
